ethylbenzene
     RDKit          3D

 18 18  0  0  0  0  0  0  0  0999 V2000
    2.4505   -0.2716   -0.5996 C   0  0  0  0  0  0  0  0  0  0  0  0
    1.6417    0.3505    0.5284 C   0  0  0  0  0  0  0  0  0  0  0  0
    0.1593    0.1839    0.3132 C   0  0  0  0  0  0  0  0  0  0  0  0
   -0.5067   -0.9490    0.7993 C   0  0  0  0  0  0  0  0  0  0  0  0
   -1.8767   -1.1103    0.5857 C   0  0  0  0  0  0  0  0  0  0  0  0
   -2.5920   -0.1440   -0.1192 C   0  0  0  0  0  0  0  0  0  0  0  0
   -1.9379    0.9832   -0.6128 C   0  0  0  0  0  0  0  0  0  0  0  0
   -0.5680    1.1461   -0.4000 C   0  0  0  0  0  0  0  0  0  0  0  0
    3.5212   -0.1357   -0.4170 H   0  0  0  0  0  0  0  0  0  0  0  0
    2.2093    0.1902   -1.5630 H   0  0  0  0  0  0  0  0  0  0  0  0
    2.2543   -1.3459   -0.6837 H   0  0  0  0  0  0  0  0  0  0  0  0
    1.8845    1.4167    0.6143 H   0  0  0  0  0  0  0  0  0  0  0  0
    1.9290   -0.1036    1.4846 H   0  0  0  0  0  0  0  0  0  0  0  0
    0.0393   -1.7134    1.3473 H   0  0  0  0  0  0  0  0  0  0  0  0
   -2.3852   -1.9912    0.9682 H   0  0  0  0  0  0  0  0  0  0  0  0
   -3.6583   -0.2705   -0.2855 H   0  0  0  0  0  0  0  0  0  0  0  0
   -2.4942    1.7357   -1.1652 H   0  0  0  0  0  0  0  0  0  0  0  0
   -0.0701    2.0287   -0.7949 H   0  0  0  0  0  0  0  0  0  0  0  0
  1  2  1  0
  2  3  1  0
  3  4  2  0
  4  5  1  0
  5  6  2  0
  6  7  1  0
  7  8  2  0
  8  3  1  0
  1  9  1  0
  1 10  1  0
  1 11  1  0
  2 12  1  0
  2 13  1  0
  4 14  1  0
  5 15  1  0
  6 16  1  0
  7 17  1  0
  8 18  1  0
M  END
$$$$
