benzene
  PyMOL2.5          3D                             0

 12 12  0  0  0  0  0  0  0  0999 V2000
   25.9780    5.3270    4.7790 C   0  0  0  0  0  0  0  0  0  0  0  0
   26.3950    5.0740    3.4990 C   0  0  0  0  0  0  0  0  0  0  0  0
   27.3400    5.8600    2.9020 C   0  0  0  0  0  0  0  0  0  0  0  0
   27.8370    6.9210    3.5690 C   0  0  0  0  0  0  0  0  0  0  0  0
   27.4200    7.1960    4.8560 C   0  0  0  0  0  0  0  0  0  0  0  0
   26.4980    6.3790    5.4690 C   0  0  0  0  0  0  0  0  0  0  0  0
   25.2298    4.6859    5.2451 H   0  0  0  0  0  0  0  0  0  0  0  0
   25.9676    4.2351    2.9497 H   0  0  0  0  0  0  0  0  0  0  0  0
   27.6890    5.6311    1.8951 H   0  0  0  0  0  0  0  0  0  0  0  0
   28.5730    7.5660    3.0889 H   0  0  0  0  0  0  0  0  0  0  0  0
   27.8209    8.0598    5.3863 H   0  0  0  0  0  0  0  0  0  0  0  0
   26.1874    6.5720    6.4958 H   0  0  0  0  0  0  0  0  0  0  0  0
  1  2  4  0  0  0  0
  1  6  4  0  0  0  0
  1  7  1  0  0  0  0
  2  3  4  0  0  0  0
  2  8  1  0  0  0  0
  3  4  4  0  0  0  0
  3  9  1  0  0  0  0
  4  5  4  0  0  0  0
  4 10  1  0  0  0  0
  5  6  4  0  0  0  0
  5 11  1  0  0  0  0
  6 12  1  0  0  0  0
M  END
$$$$
toluene
  PyMOL2.5          3D                             0

 15 15  0  0  0  0  0  0  0  0999 V2000
   28.9072    8.7434    5.1220 H   0  0  0  0  0  0  0  0  0  0  0  0
   28.1966    8.1433    6.6393 H   0  0  0  0  0  0  0  0  0  0  0  0
   27.9864    8.4164    5.6052 C   0  0  0  0  0  0  0  0  0  0  0  0
   27.2579    9.2269    5.5838 H   0  0  0  0  0  0  0  0  0  0  0  0
   25.9780    5.3270    4.7790 C   0  0  0  0  0  0  0  0  0  0  0  0
   26.3950    5.0740    3.4990 C   0  0  0  0  0  0  0  0  0  0  0  0
   27.3400    5.8600    2.9020 C   0  0  0  0  0  0  0  0  0  0  0  0
   27.8370    6.9210    3.5690 C   0  0  0  0  0  0  0  0  0  0  0  0
   27.4200    7.1960    4.8560 C   0  0  0  0  0  0  0  0  0  0  0  0
   26.4980    6.3790    5.4690 C   0  0  0  0  0  0  0  0  0  0  0  0
   25.2298    4.6859    5.2451 H   0  0  0  0  0  0  0  0  0  0  0  0
   25.9676    4.2351    2.9497 H   0  0  0  0  0  0  0  0  0  0  0  0
   27.6890    5.6311    1.8951 H   0  0  0  0  0  0  0  0  0  0  0  0
   28.5730    7.5660    3.0889 H   0  0  0  0  0  0  0  0  0  0  0  0
   26.1874    6.5720    6.4958 H   0  0  0  0  0  0  0  0  0  0  0  0
  1  3  1  0  0  0  0
  2  3  1  0  0  0  0
  3  4  1  0  0  0  0
  5  6  4  0  0  0  0
  5 10  4  0  0  0  0
  5 11  1  0  0  0  0
  6  7  4  0  0  0  0
  6 12  1  0  0  0  0
  7  8  4  0  0  0  0
  7 13  1  0  0  0  0
  8  9  4  0  0  0  0
  8 14  1  0  0  0  0
  3  9  1  0  0  0  0
  9 10  4  0  0  0  0
 10 15  1  0  0  0  0
M  END
$$$$
ethylbenzene
  PyMOL3.1          3D                             0

 18 18  0  0  0  0  0  0  0  0999 V2000
   29.2698    7.9949    6.4119 C   0  0  0  0  0  0  0  0  0  0  0  0
   28.0254    8.3923    5.6328 C   0  0  0  0  0  0  0  0  0  0  0  0
   27.4412    7.2265    4.8770 C   0  0  0  0  0  0  0  0  0  0  0  0
   26.4902    6.3929    5.4803 C   0  0  0  0  0  0  0  0  0  0  0  0
   25.9614    5.3039    4.7853 C   0  0  0  0  0  0  0  0  0  0  0  0
   26.3815    5.0355    3.4838 C   0  0  0  0  0  0  0  0  0  0  0  0
   27.3320    5.8544    2.8770 C   0  0  0  0  0  0  0  0  0  0  0  0
   27.8617    6.9438    3.5706 C   0  0  0  0  0  0  0  0  0  0  0  0
   29.6716    8.8595    6.9498 H   0  0  0  0  0  0  0  0  0  0  0  0
   30.0521    7.6166    5.7452 H   0  0  0  0  0  0  0  0  0  0  0  0
   29.0466    7.2127    7.1454 H   0  0  0  0  0  0  0  0  0  0  0  0
   28.2688    9.2010    4.9329 H   0  0  0  0  0  0  0  0  0  0  0  0
   27.2736    8.8013    6.3187 H   0  0  0  0  0  0  0  0  0  0  0  0
   26.1562    6.5875    6.4968 H   0  0  0  0  0  0  0  0  0  0  0  0
   25.2227    4.6641    5.2605 H   0  0  0  0  0  0  0  0  0  0  0  0
   25.9699    4.1874    2.9436 H   0  0  0  0  0  0  0  0  0  0  0  0
   27.6624    5.6441    1.8634 H   0  0  0  0  0  0  0  0  0  0  0  0
   28.6059    7.5715    3.0858 H   0  0  0  0  0  0  0  0  0  0  0  0
  1  2  1  0  0  0  0
  1  9  1  0  0  0  0
  1 10  1  0  0  0  0
  1 11  1  0  0  0  0
  2  3  1  0  0  0  0
  2 12  1  0  0  0  0
  2 13  1  0  0  0  0
  3  4  2  0  0  0  0
  4  5  1  0  0  0  0
  4 14  1  0  0  0  0
  5  6  2  0  0  0  0
  5 15  1  0  0  0  0
  6  7  1  0  0  0  0
  6 16  1  0  0  0  0
  7  8  2  0  0  0  0
  7 17  1  0  0  0  0
  3  8  1  0  0  0  0
  8 18  1  0  0  0  0
M  END
$$$$
